  24
  -536.19979645040416
 C     0.00000000     0.67783034    -2.08588212
 C     0.00000000    -0.67783034    -2.08588212
 C     0.00000000     1.42106701    -0.84970341
 C     0.00000000    -1.42106701    -0.84970341
 C     0.00000000     2.83759437    -0.86610089
 C     0.00000000    -2.83759437    -0.86610089
 C     0.00000000     3.56170423     0.30626488
 C     0.00000000    -3.56170423     0.30626488
 C     0.00000000     2.88124063     1.54010375
 C     0.00000000    -2.88124063     1.54010375
 C     0.00000000     1.50151051     1.57560610
 C     0.00000000    -1.50151051     1.57560610
 C     0.00000000     0.73168748     0.38335609
 C     0.00000000    -0.73168748     0.38335609
 H     0.00000000     1.22353043    -3.01330149
 H     0.00000000    -1.22353043    -3.01330149
 H     0.00000000     3.34458767    -1.81554482
 H     0.00000000    -3.34458767    -1.81554482
 H     0.00000000     4.63691032     0.28216291
 H     0.00000000    -4.63691032     0.28216291
 H     0.00000000     3.43834814     2.46023243
 H     0.00000000    -3.43834814     2.46023243
 H     0.00000000     1.01552108     2.53189752
 H     0.00000000    -1.01552108     2.53189752
