  22
  -497.51173870183317
 C     0.00000000     2.44096221    -0.01721424
 C     0.00000000    -2.44096221    -0.01721424
 C     0.00000000     2.44183255    -1.40926438
 C     0.00000000    -2.44183255    -1.40926438
 C     0.00000000     1.23584650    -2.10453394
 C     0.00000000    -1.23584650    -2.10453394
 C     0.00000000     0.00000000    -1.41729817
 C     0.00000000     0.00000000     0.00053130
 C     0.00000000     1.22787927     0.70944432
 C     0.00000000    -1.22787927     0.70944432
 C     0.00000000     1.20511741     2.12333334
 C     0.00000000    -1.20511741     2.12333334
 C     0.00000000     0.00000000     2.82010926
 H     0.00000000     3.37391662     0.51714894
 H     0.00000000    -3.37391662     0.51714894
 H     0.00000000     3.37143406    -1.94596582
 H     0.00000000    -3.37143406    -1.94596582
 H     0.00000000     1.23954636    -3.17967760
 H     0.00000000    -1.23954636    -3.17967760
 H     0.00000000     2.13436785     2.66411273
 H     0.00000000    -2.13436785     2.66411273
 H     0.00000000     0.00000000     3.89351873
